


 26 29  0  0  0  0  0  0  0  0999 V2000
    8.4753  -22.8602  -15.2359 C   0  0  0  0  0  0  0  0  0  0  0  0
    8.1628  -24.3228  -14.8116 C   0  0  0  0  0  0  0  0  0  0  0  0
    9.2194  -24.8559  -13.8246 C   0  0  0  0  0  0  0  0  0  0  0  0
   10.5926  -25.0051  -14.5284 C   0  0  0  0  0  0  0  0  0  0  0  0
   10.5367  -25.7972  -15.8823 C   0  0  0  0  0  0  0  0  0  0  0  0
    9.3558  -25.3610  -16.8094 C   0  0  0  0  0  0  0  0  0  0  0  0
    8.0689  -25.3254  -15.9662 C   0  0  0  0  0  0  0  0  0  0  0  0
    6.7166  -25.0536  -16.6286 C   0  0  0  0  0  0  0  0  0  0  0  0
    5.7970  -24.7442  -15.4336 C   0  0  0  0  0  0  0  0  0  0  0  0
    6.7463  -24.3491  -14.3431 C   0  0  0  0  0  0  0  0  0  0  0  0
    6.3897  -24.0294  -13.2195 O   0  0  0  0  0  0  0  0  0  0  0  0
    9.2148  -26.3548  -17.9736 C   0  0  0  0  0  0  0  0  0  0  0  0
   10.5282  -26.7292  -18.6017 C   0  0  0  0  0  0  0  0  0  0  0  0
   11.7304  -26.5735  -18.0017 C   0  0  0  0  0  0  0  0  0  0  0  0
   11.9015  -25.8206  -16.6716 C   0  0  0  0  0  0  0  0  0  0  0  0
   12.9685  -26.5637  -15.8083 C   0  0  0  0  0  0  0  0  0  0  0  0
   14.2448  -26.9309  -16.5795 C   0  0  0  0  0  0  0  0  0  0  0  0
   13.9185  -27.7927  -17.8047 C   0  0  0  0  0  0  0  0  0  0  0  0
   12.9730  -27.0372  -18.7419 C   0  0  0  0  0  0  0  0  0  0  0  0
   12.4061  -24.3857  -16.9892 C   0  0  0  0  0  0  0  0  0  0  0  0
   15.1138  -28.0732  -18.5084 O   0  0  0  0  0  0  0  0  0  0  0  0
   15.7234  -29.5913  -18.0489 S   0  0  0  0  0  0  0  0  0  0  0  0
   16.1748  -30.3463  -19.2660 O   0  0  0  0  0  0  0  0  0  0  0  0
   14.6752  -30.3855  -17.3201 O   0  0  0  0  0  0  0  0  0  0  0  0
   17.0413  -29.3621  -17.0323 O   0  0  0  0  0  0  0  0  0  0  0  0
   16.7181  -28.7406  -16.3331 H   0  0  0  0  0  0  0  0  0  0  0  0
  1  2  1  0  0  0
  2  3  1  0  0  0
  2  7  1  0  0  0
  2 10  1  0  0  0
  3  4  1  0  0  0
  4  5  1  0  0  0
  5  6  1  0  0  0
  5 15  1  0  0  0
  6  7  1  0  0  0
  6 12  1  0  0  0
  7  8  1  0  0  0
  8  9  1  0  0  0
  9 10  1  0  0  0
 10 11  2  0  0  0
 12 13  1  0  0  0
 13 14  2  0  0  0
 14 15  1  0  0  0
 14 19  1  0  0  0
 15 16  1  0  0  0
 15 20  1  0  0  0
 16 17  1  0  0  0
 17 18  1  0  0  0
 18 19  1  0  0  0
 18 21  1  0  0  0
 21 22  1  0  0  0
 22 23  2  0  0  0
 22 24  2  0  0  0
 22 25  1  0  0  0
 25 26  1  0  0  0
M  END
> <COMPND>
../0-casp/nT856Q.pdb

> <AUTHOR>
GENERATED BY OPEN BABEL 3.1.0

> <MASTER>
        0    0    0    0    0    0    0    0   26    0   26    0

> <minimizedAffinity>
-7.58695

> <CNNscore>
0.8222293854

> <CNNaffinity>
5.6560406685

> <CNN_VS>
4.6505627632

> <CNNaffinity_variance>
0.2975234091

$$$$



 26 29  0  0  0  0  0  0  0  0999 V2000
    6.6529  -27.2233  -14.4672 C   0  0  0  0  0  0  0  0  0  0  0  0
    7.8200  -26.3440  -13.9366 C   0  0  0  0  0  0  0  0  0  0  0  0
    8.3673  -25.4173  -15.0395 C   0  0  0  0  0  0  0  0  0  0  0  0
    9.0607  -26.2469  -16.1504 C   0  0  0  0  0  0  0  0  0  0  0  0
   10.1128  -27.2818  -15.6158 C   0  0  0  0  0  0  0  0  0  0  0  0
    9.6062  -28.1046  -14.3866 C   0  0  0  0  0  0  0  0  0  0  0  0
    9.0081  -27.1231  -13.3632 C   0  0  0  0  0  0  0  0  0  0  0  0
    8.5415  -27.6215  -11.9938 C   0  0  0  0  0  0  0  0  0  0  0  0
    7.7051  -26.4450  -11.4591 C   0  0  0  0  0  0  0  0  0  0  0  0
    7.3351  -25.6779  -12.6925 C   0  0  0  0  0  0  0  0  0  0  0  0
    6.6635  -24.6579  -12.6780 O   0  0  0  0  0  0  0  0  0  0  0  0
   10.7753  -28.8881  -13.7684 C   0  0  0  0  0  0  0  0  0  0  0  0
   11.6426  -29.5708  -14.7888 C   0  0  0  0  0  0  0  0  0  0  0  0
   11.6856  -29.2344  -16.0982 C   0  0  0  0  0  0  0  0  0  0  0  0
   10.7081  -28.2280  -16.7279 C   0  0  0  0  0  0  0  0  0  0  0  0
   11.4835  -27.3575  -17.7657 C   0  0  0  0  0  0  0  0  0  0  0  0
   12.3689  -28.1716  -18.7205 C   0  0  0  0  0  0  0  0  0  0  0  0
   13.3788  -29.0233  -17.9426 C   0  0  0  0  0  0  0  0  0  0  0  0
   12.6438  -29.9857  -17.0064 C   0  0  0  0  0  0  0  0  0  0  0  0
    9.5939  -29.0278  -17.4584 C   0  0  0  0  0  0  0  0  0  0  0  0
   14.1447  -29.7870  -18.8553 O   0  0  0  0  0  0  0  0  0  0  0  0
   15.8026  -29.5105  -18.6060 S   0  0  0  0  0  0  0  0  0  0  0  0
   16.1192  -28.0641  -18.8572 O   0  0  0  0  0  0  0  0  0  0  0  0
   16.6278  -30.3753  -19.5180 O   0  0  0  0  0  0  0  0  0  0  0  0
   16.1809  -29.8802  -17.0113 O   0  0  0  0  0  0  0  0  0  0  0  0
   15.8168  -30.7892  -16.8676 H   0  0  0  0  0  0  0  0  0  0  0  0
  1  2  1  0  0  0
  2  3  1  0  0  0
  2  7  1  0  0  0
  2 10  1  0  0  0
  3  4  1  0  0  0
  4  5  1  0  0  0
  5  6  1  0  0  0
  5 15  1  0  0  0
  6  7  1  0  0  0
  6 12  1  0  0  0
  7  8  1  0  0  0
  8  9  1  0  0  0
  9 10  1  0  0  0
 10 11  2  0  0  0
 12 13  1  0  0  0
 13 14  2  0  0  0
 14 15  1  0  0  0
 14 19  1  0  0  0
 15 16  1  0  0  0
 15 20  1  0  0  0
 16 17  1  0  0  0
 17 18  1  0  0  0
 18 19  1  0  0  0
 18 21  1  0  0  0
 21 22  1  0  0  0
 22 23  2  0  0  0
 22 24  2  0  0  0
 22 25  1  0  0  0
 25 26  1  0  0  0
M  END
> <COMPND>
../0-casp/nT856Q.pdb

> <AUTHOR>
GENERATED BY OPEN BABEL 3.1.0

> <MASTER>
        0    0    0    0    0    0    0    0   26    0   26    0

> <minimizedAffinity>
-8.39684

> <CNNscore>
0.7420304418

> <CNNaffinity>
5.5896358490

> <CNN_VS>
4.1476798058

> <CNNaffinity_variance>
0.1881273836

$$$$



 26 29  0  0  0  0  0  0  0  0999 V2000
    1.9093  -26.4350  -13.8008 C   0  0  0  0  0  0  0  0  0  0  0  0
    2.6097  -25.9536  -15.1026 C   0  0  0  0  0  0  0  0  0  0  0  0
    3.3988  -27.0976  -15.7682 C   0  0  0  0  0  0  0  0  0  0  0  0
    4.6019  -27.5133  -14.8833 C   0  0  0  0  0  0  0  0  0  0  0  0
    5.5006  -26.3135  -14.4181 C   0  0  0  0  0  0  0  0  0  0  0  0
    4.6810  -25.0883  -13.8971 C   0  0  0  0  0  0  0  0  0  0  0  0
    3.5750  -24.7778  -14.9211 C   0  0  0  0  0  0  0  0  0  0  0  0
    2.6837  -23.5461  -14.7483 C   0  0  0  0  0  0  0  0  0  0  0  0
    1.5278  -23.8094  -15.7302 C   0  0  0  0  0  0  0  0  0  0  0  0
    1.5673  -25.2928  -15.9413 C   0  0  0  0  0  0  0  0  0  0  0  0
    0.7936  -25.8923  -16.6719 O   0  0  0  0  0  0  0  0  0  0  0  0
    5.6119  -23.8780  -13.7196 C   0  0  0  0  0  0  0  0  0  0  0  0
    6.9122  -24.2183  -13.0465 C   0  0  0  0  0  0  0  0  0  0  0  0
    7.4231  -25.4681  -12.9660 C   0  0  0  0  0  0  0  0  0  0  0  0
    6.6342  -26.7154  -13.3983 C   0  0  0  0  0  0  0  0  0  0  0  0
    7.6119  -27.7092  -14.1000 C   0  0  0  0  0  0  0  0  0  0  0  0
    8.9231  -27.9355  -13.3331 C   0  0  0  0  0  0  0  0  0  0  0  0
    9.6572  -26.6108  -13.0956 C   0  0  0  0  0  0  0  0  0  0  0  0
    8.7711  -25.6559  -12.2916 C   0  0  0  0  0  0  0  0  0  0  0  0
    6.0492  -27.3840  -12.1234 C   0  0  0  0  0  0  0  0  0  0  0  0
   10.8355  -26.8582  -12.3519 O   0  0  0  0  0  0  0  0  0  0  0  0
   12.0488  -27.4822  -13.3646 S   0  0  0  0  0  0  0  0  0  0  0  0
   13.3967  -27.0328  -12.8779 O   0  0  0  0  0  0  0  0  0  0  0  0
   11.8440  -27.0248  -14.7822 O   0  0  0  0  0  0  0  0  0  0  0  0
   11.9860  -29.1605  -13.3168 O   0  0  0  0  0  0  0  0  0  0  0  0
   11.0402  -29.3850  -13.5027 H   0  0  0  0  0  0  0  0  0  0  0  0
  1  2  1  0  0  0
  2  3  1  0  0  0
  2  7  1  0  0  0
  2 10  1  0  0  0
  3  4  1  0  0  0
  4  5  1  0  0  0
  5  6  1  0  0  0
  5 15  1  0  0  0
  6  7  1  0  0  0
  6 12  1  0  0  0
  7  8  1  0  0  0
  8  9  1  0  0  0
  9 10  1  0  0  0
 10 11  2  0  0  0
 12 13  1  0  0  0
 13 14  2  0  0  0
 14 15  1  0  0  0
 14 19  1  0  0  0
 15 16  1  0  0  0
 15 20  1  0  0  0
 16 17  1  0  0  0
 17 18  1  0  0  0
 18 19  1  0  0  0
 18 21  1  0  0  0
 21 22  1  0  0  0
 22 23  2  0  0  0
 22 24  2  0  0  0
 22 25  1  0  0  0
 25 26  1  0  0  0
M  END
> <COMPND>
../0-casp/nT856Q.pdb

> <AUTHOR>
GENERATED BY OPEN BABEL 3.1.0

> <MASTER>
        0    0    0    0    0    0    0    0   26    0   26    0

> <minimizedAffinity>
-7.33223

> <CNNscore>
0.7311677337

> <CNNaffinity>
5.6475806236

> <CNN_VS>
4.1293287277

> <CNNaffinity_variance>
0.1706647277

$$$$



 26 29  0  0  0  0  0  0  0  0999 V2000
    6.2154  -29.4418  -18.6751 C   0  0  0  0  0  0  0  0  0  0  0  0
    6.7324  -27.9757  -18.6918 C   0  0  0  0  0  0  0  0  0  0  0  0
    7.7024  -27.7388  -19.8655 C   0  0  0  0  0  0  0  0  0  0  0  0
    9.0103  -28.5451  -19.6595 C   0  0  0  0  0  0  0  0  0  0  0  0
    9.6680  -28.3506  -18.2477 C   0  0  0  0  0  0  0  0  0  0  0  0
    8.6439  -28.4279  -17.0689 C   0  0  0  0  0  0  0  0  0  0  0  0
    7.4450  -27.5262  -17.4122 C   0  0  0  0  0  0  0  0  0  0  0  0
    6.3310  -27.2965  -16.3886 C   0  0  0  0  0  0  0  0  0  0  0  0
    5.2030  -26.6752  -17.2319 C   0  0  0  0  0  0  0  0  0  0  0  0
    5.5338  -27.0887  -18.6341 C   0  0  0  0  0  0  0  0  0  0  0  0
    4.8615  -26.7804  -19.6060 O   0  0  0  0  0  0  0  0  0  0  0  0
    9.3157  -27.9654  -15.7660 C   0  0  0  0  0  0  0  0  0  0  0  0
   10.6919  -28.5366  -15.5681 C   0  0  0  0  0  0  0  0  0  0  0  0
   11.4512  -29.0535  -16.5609 C   0  0  0  0  0  0  0  0  0  0  0  0
   10.9123  -29.2823  -17.9830 C   0  0  0  0  0  0  0  0  0  0  0  0
   12.0340  -28.9257  -19.0080 C   0  0  0  0  0  0  0  0  0  0  0  0
   13.4026  -29.5333  -18.6668 C   0  0  0  0  0  0  0  0  0  0  0  0
   13.8617  -29.1044  -17.2684 C   0  0  0  0  0  0  0  0  0  0  0  0
   12.8430  -29.5568  -16.2192 C   0  0  0  0  0  0  0  0  0  0  0  0
   10.5450  -30.7855  -18.1253 C   0  0  0  0  0  0  0  0  0  0  0  0
   15.1035  -29.7176  -16.9775 O   0  0  0  0  0  0  0  0  0  0  0  0
   16.2889  -29.1933  -18.0762 S   0  0  0  0  0  0  0  0  0  0  0  0
   17.6204  -29.1135  -17.3862 O   0  0  0  0  0  0  0  0  0  0  0  0
   15.9301  -27.8471  -18.6416 O   0  0  0  0  0  0  0  0  0  0  0  0
   16.3940  -30.3040  -19.3325 O   0  0  0  0  0  0  0  0  0  0  0  0
   15.4629  -30.4208  -19.6472 H   0  0  0  0  0  0  0  0  0  0  0  0
  1  2  1  0  0  0
  2  3  1  0  0  0
  2  7  1  0  0  0
  2 10  1  0  0  0
  3  4  1  0  0  0
  4  5  1  0  0  0
  5  6  1  0  0  0
  5 15  1  0  0  0
  6  7  1  0  0  0
  6 12  1  0  0  0
  7  8  1  0  0  0
  8  9  1  0  0  0
  9 10  1  0  0  0
 10 11  2  0  0  0
 12 13  1  0  0  0
 13 14  2  0  0  0
 14 15  1  0  0  0
 14 19  1  0  0  0
 15 16  1  0  0  0
 15 20  1  0  0  0
 16 17  1  0  0  0
 17 18  1  0  0  0
 18 19  1  0  0  0
 18 21  1  0  0  0
 21 22  1  0  0  0
 22 23  2  0  0  0
 22 24  2  0  0  0
 22 25  1  0  0  0
 25 26  1  0  0  0
M  END
> <COMPND>
../0-casp/nT856Q.pdb

> <AUTHOR>
GENERATED BY OPEN BABEL 3.1.0

> <MASTER>
        0    0    0    0    0    0    0    0   26    0   26    0

> <minimizedAffinity>
-7.77910

> <CNNscore>
0.7250474691

> <CNNaffinity>
5.5781564713

> <CNN_VS>
4.0444283485

> <CNNaffinity_variance>
0.1123483330

$$$$



 26 29  0  0  0  0  0  0  0  0999 V2000
    5.9631  -27.6359  -17.2924 C   0  0  0  0  0  0  0  0  0  0  0  0
    6.8268  -26.3441  -17.3390 C   0  0  0  0  0  0  0  0  0  0  0  0
    7.6162  -26.2471  -18.6589 C   0  0  0  0  0  0  0  0  0  0  0  0
    8.6904  -27.3624  -18.7316 C   0  0  0  0  0  0  0  0  0  0  0  0
    9.6012  -27.4597  -17.4570 C   0  0  0  0  0  0  0  0  0  0  0  0
    8.8019  -27.3899  -16.1151 C   0  0  0  0  0  0  0  0  0  0  0  0
    7.8329  -26.1968  -16.1930 C   0  0  0  0  0  0  0  0  0  0  0  0
    7.0006  -25.7947  -14.9736 C   0  0  0  0  0  0  0  0  0  0  0  0
    5.9446  -24.8454  -15.5678 C   0  0  0  0  0  0  0  0  0  0  0  0
    5.9211  -25.2009  -17.0237 C   0  0  0  0  0  0  0  0  0  0  0  0
    5.1978  -24.6534  -17.8415 O   0  0  0  0  0  0  0  0  0  0  0  0
    9.7763  -27.2220  -14.9382 C   0  0  0  0  0  0  0  0  0  0  0  0
   10.9743  -28.1261  -15.0210 C   0  0  0  0  0  0  0  0  0  0  0  0
   11.4007  -28.7221  -16.1580 C   0  0  0  0  0  0  0  0  0  0  0  0
   10.5926  -28.6859  -17.4660 C   0  0  0  0  0  0  0  0  0  0  0  0
   11.5818  -28.5234  -18.6623 C   0  0  0  0  0  0  0  0  0  0  0  0
   12.7870  -29.4734  -18.6047 C   0  0  0  0  0  0  0  0  0  0  0  0
   13.5661  -29.2949  -17.2964 C   0  0  0  0  0  0  0  0  0  0  0  0
   12.6548  -29.5771  -16.0994 C   0  0  0  0  0  0  0  0  0  0  0  0
    9.8356  -30.0358  -17.6047 C   0  0  0  0  0  0  0  0  0  0  0  0
   14.6408  -30.2150  -17.2652 O   0  0  0  0  0  0  0  0  0  0  0  0
   15.9860  -29.5747  -18.0823 S   0  0  0  0  0  0  0  0  0  0  0  0
   15.7008  -28.1602  -18.4986 O   0  0  0  0  0  0  0  0  0  0  0  0
   16.3147  -30.4025  -19.2936 O   0  0  0  0  0  0  0  0  0  0  0  0
   17.3056  -29.5790  -17.0422 O   0  0  0  0  0  0  0  0  0  0  0  0
   17.3498  -30.5033  -16.6913 H   0  0  0  0  0  0  0  0  0  0  0  0
  1  2  1  0  0  0
  2  3  1  0  0  0
  2  7  1  0  0  0
  2 10  1  0  0  0
  3  4  1  0  0  0
  4  5  1  0  0  0
  5  6  1  0  0  0
  5 15  1  0  0  0
  6  7  1  0  0  0
  6 12  1  0  0  0
  7  8  1  0  0  0
  8  9  1  0  0  0
  9 10  1  0  0  0
 10 11  2  0  0  0
 12 13  1  0  0  0
 13 14  2  0  0  0
 14 15  1  0  0  0
 14 19  1  0  0  0
 15 16  1  0  0  0
 15 20  1  0  0  0
 16 17  1  0  0  0
 17 18  1  0  0  0
 18 19  1  0  0  0
 18 21  1  0  0  0
 21 22  1  0  0  0
 22 23  2  0  0  0
 22 24  2  0  0  0
 22 25  1  0  0  0
 25 26  1  0  0  0
M  END
> <COMPND>
../0-casp/nT856Q.pdb

> <AUTHOR>
GENERATED BY OPEN BABEL 3.1.0

> <MASTER>
        0    0    0    0    0    0    0    0   26    0   26    0

> <minimizedAffinity>
-8.33655

> <CNNscore>
0.7233178020

> <CNNaffinity>
5.4628067017

> <CNN_VS>
3.9513454437

> <CNNaffinity_variance>
0.0458296165

$$$$



 26 29  0  0  0  0  0  0  0  0999 V2000
    4.6137  -25.7060  -12.6709 C   0  0  0  0  0  0  0  0  0  0  0  0
    5.8340  -24.8703  -12.1922 C   0  0  0  0  0  0  0  0  0  0  0  0
    6.3536  -23.9482  -13.3123 C   0  0  0  0  0  0  0  0  0  0  0  0
    6.9623  -24.7860  -14.4659 C   0  0  0  0  0  0  0  0  0  0  0  0
    8.0066  -25.8598  -13.9968 C   0  0  0  0  0  0  0  0  0  0  0  0
    7.5375  -26.6808  -12.7516 C   0  0  0  0  0  0  0  0  0  0  0  0
    7.0243  -25.6931  -11.6888 C   0  0  0  0  0  0  0  0  0  0  0  0
    6.6127  -26.1929  -10.3024 C   0  0  0  0  0  0  0  0  0  0  0  0
    5.8429  -24.9971   -9.7132 C   0  0  0  0  0  0  0  0  0  0  0  0
    5.4350  -24.2042  -10.9180 C   0  0  0  0  0  0  0  0  0  0  0  0
    4.7980  -23.1637  -10.8584 O   0  0  0  0  0  0  0  0  0  0  0  0
    8.7109  -27.5080  -12.2026 C   0  0  0  0  0  0  0  0  0  0  0  0
    9.5026  -28.2054  -13.2733 C   0  0  0  0  0  0  0  0  0  0  0  0
    9.4894  -27.8550  -14.5796 C   0  0  0  0  0  0  0  0  0  0  0  0
    8.5136  -26.8109  -15.1478 C   0  0  0  0  0  0  0  0  0  0  0  0
    9.2624  -25.9530  -16.2151 C   0  0  0  0  0  0  0  0  0  0  0  0
   10.0713  -26.7832  -17.2226 C   0  0  0  0  0  0  0  0  0  0  0  0
   11.0919  -27.6754  -16.5066 C   0  0  0  0  0  0  0  0  0  0  0  0
   10.3752  -28.6252  -15.5436 C   0  0  0  0  0  0  0  0  0  0  0  0
    7.3384  -27.5665  -15.8280 C   0  0  0  0  0  0  0  0  0  0  0  0
   11.7851  -28.4519  -17.4652 O   0  0  0  0  0  0  0  0  0  0  0  0
   13.3593  -28.7882  -16.9213 S   0  0  0  0  0  0  0  0  0  0  0  0
   14.3414  -28.5524  -18.0328 O   0  0  0  0  0  0  0  0  0  0  0  0
   13.4641  -30.2109  -16.4463 O   0  0  0  0  0  0  0  0  0  0  0  0
   13.7249  -27.7574  -15.6459 O   0  0  0  0  0  0  0  0  0  0  0  0
   12.9669  -27.8524  -15.0167 H   0  0  0  0  0  0  0  0  0  0  0  0
  1  2  1  0  0  0
  2  3  1  0  0  0
  2  7  1  0  0  0
  2 10  1  0  0  0
  3  4  1  0  0  0
  4  5  1  0  0  0
  5  6  1  0  0  0
  5 15  1  0  0  0
  6  7  1  0  0  0
  6 12  1  0  0  0
  7  8  1  0  0  0
  8  9  1  0  0  0
  9 10  1  0  0  0
 10 11  2  0  0  0
 12 13  1  0  0  0
 13 14  2  0  0  0
 14 15  1  0  0  0
 14 19  1  0  0  0
 15 16  1  0  0  0
 15 20  1  0  0  0
 16 17  1  0  0  0
 17 18  1  0  0  0
 18 19  1  0  0  0
 18 21  1  0  0  0
 21 22  1  0  0  0
 22 23  2  0  0  0
 22 24  2  0  0  0
 22 25  1  0  0  0
 25 26  1  0  0  0
M  END
> <COMPND>
../0-casp/nT856Q.pdb

> <AUTHOR>
GENERATED BY OPEN BABEL 3.1.0

> <MASTER>
        0    0    0    0    0    0    0    0   26    0   26    0

> <minimizedAffinity>
-8.34555

> <CNNscore>
0.6949985027

> <CNNaffinity>
5.4443821907

> <CNN_VS>
3.7838375568

> <CNNaffinity_variance>
0.2445465773

$$$$



 26 29  0  0  0  0  0  0  0  0999 V2000
    6.4515  -23.7609  -13.7147 C   0  0  0  0  0  0  0  0  0  0  0  0
    6.3827  -25.2298  -13.2102 C   0  0  0  0  0  0  0  0  0  0  0  0
    7.5315  -25.5384  -12.2306 C   0  0  0  0  0  0  0  0  0  0  0  0
    8.8952  -25.5084  -12.9672 C   0  0  0  0  0  0  0  0  0  0  0  0
    8.9350  -26.3701  -14.2785 C   0  0  0  0  0  0  0  0  0  0  0  0
    7.6800  -26.1733  -15.1899 C   0  0  0  0  0  0  0  0  0  0  0  0
    6.4224  -26.2945  -14.3111 C   0  0  0  0  0  0  0  0  0  0  0  0
    5.0300  -26.2726  -14.9451 C   0  0  0  0  0  0  0  0  0  0  0  0
    4.0996  -26.0477  -13.7396 C   0  0  0  0  0  0  0  0  0  0  0  0
    4.9986  -25.4521  -12.6987 C   0  0  0  0  0  0  0  0  0  0  0  0
    4.6209  -25.1330  -11.5819 O   0  0  0  0  0  0  0  0  0  0  0  0
    7.6717  -27.2371  -16.2994 C   0  0  0  0  0  0  0  0  0  0  0  0
    9.0135  -27.4346  -16.9476 C   0  0  0  0  0  0  0  0  0  0  0  0
   10.1891  -27.0615  -16.3923 C   0  0  0  0  0  0  0  0  0  0  0  0
   10.2688  -26.2219  -15.1063 C   0  0  0  0  0  0  0  0  0  0  0  0
   11.4582  -26.7425  -14.2402 C   0  0  0  0  0  0  0  0  0  0  0  0
   12.7591  -26.9462  -15.0305 C   0  0  0  0  0  0  0  0  0  0  0  0
   12.5457  -27.9121  -16.2018 C   0  0  0  0  0  0  0  0  0  0  0  0
   11.4727  -27.3641  -17.1459 C   0  0  0  0  0  0  0  0  0  0  0  0
   10.5340  -24.7446  -15.5087 C   0  0  0  0  0  0  0  0  0  0  0  0
   13.7545  -28.0393  -16.9265 O   0  0  0  0  0  0  0  0  0  0  0  0
   13.9763  -29.6499  -17.4205 S   0  0  0  0  0  0  0  0  0  0  0  0
   13.2776  -30.5744  -16.4651 O   0  0  0  0  0  0  0  0  0  0  0  0
   15.4395  -29.9911  -17.4766 O   0  0  0  0  0  0  0  0  0  0  0  0
   13.3099  -29.8453  -18.9504 O   0  0  0  0  0  0  0  0  0  0  0  0
   13.7014  -29.1163  -19.4933 H   0  0  0  0  0  0  0  0  0  0  0  0
  1  2  1  0  0  0
  2  3  1  0  0  0
  2  7  1  0  0  0
  2 10  1  0  0  0
  3  4  1  0  0  0
  4  5  1  0  0  0
  5  6  1  0  0  0
  5 15  1  0  0  0
  6  7  1  0  0  0
  6 12  1  0  0  0
  7  8  1  0  0  0
  8  9  1  0  0  0
  9 10  1  0  0  0
 10 11  2  0  0  0
 12 13  1  0  0  0
 13 14  2  0  0  0
 14 15  1  0  0  0
 14 19  1  0  0  0
 15 16  1  0  0  0
 15 20  1  0  0  0
 16 17  1  0  0  0
 17 18  1  0  0  0
 18 19  1  0  0  0
 18 21  1  0  0  0
 21 22  1  0  0  0
 22 23  2  0  0  0
 22 24  2  0  0  0
 22 25  1  0  0  0
 25 26  1  0  0  0
M  END
> <COMPND>
../0-casp/nT856Q.pdb

> <AUTHOR>
GENERATED BY OPEN BABEL 3.1.0

> <MASTER>
        0    0    0    0    0    0    0    0   26    0   26    0

> <minimizedAffinity>
-9.26368

> <CNNscore>
0.6813902855

> <CNNaffinity>
5.4538426399

> <CNN_VS>
3.7161953449

> <CNNaffinity_variance>
0.1956650317

$$$$



 26 29  0  0  0  0  0  0  0  0999 V2000
   11.3705  -23.5348  -11.5521 C   0  0  0  0  0  0  0  0  0  0  0  0
   11.2324  -25.0243  -11.1287 C   0  0  0  0  0  0  0  0  0  0  0  0
   11.2387  -25.9566  -12.3557 C   0  0  0  0  0  0  0  0  0  0  0  0
    9.9630  -25.7388  -13.2091 C   0  0  0  0  0  0  0  0  0  0  0  0
    8.6263  -25.7852  -12.3877 C   0  0  0  0  0  0  0  0  0  0  0  0
    8.6860  -24.9676  -11.0564 C   0  0  0  0  0  0  0  0  0  0  0  0
    9.9776  -25.3513  -10.3128 C   0  0  0  0  0  0  0  0  0  0  0  0
   10.2542  -24.8063   -8.9100 C   0  0  0  0  0  0  0  0  0  0  0  0
   11.7478  -25.1153   -8.7023 C   0  0  0  0  0  0  0  0  0  0  0  0
   12.2765  -25.2836  -10.0947 C   0  0  0  0  0  0  0  0  0  0  0  0
   13.4424  -25.5448  -10.3480 O   0  0  0  0  0  0  0  0  0  0  0  0
    7.4509  -25.2827  -10.1973 C   0  0  0  0  0  0  0  0  0  0  0  0
    6.1675  -25.2993  -10.9798 C   0  0  0  0  0  0  0  0  0  0  0  0
    6.0972  -25.4404  -12.3232 C   0  0  0  0  0  0  0  0  0  0  0  0
    7.3424  -25.4161  -13.2254 C   0  0  0  0  0  0  0  0  0  0  0  0
    7.1612  -26.4733  -14.3592 C   0  0  0  0  0  0  0  0  0  0  0  0
    5.7902  -26.4153  -15.0487 C   0  0  0  0  0  0  0  0  0  0  0  0
    4.6555  -26.5868  -14.0322 C   0  0  0  0  0  0  0  0  0  0  0  0
    4.7258  -25.4823  -12.9748 C   0  0  0  0  0  0  0  0  0  0  0  0
    7.4555  -24.0004  -13.8561 C   0  0  0  0  0  0  0  0  0  0  0  0
    3.4123  -26.4857  -14.7006 O   0  0  0  0  0  0  0  0  0  0  0  0
    2.2266  -27.3788  -13.8737 S   0  0  0  0  0  0  0  0  0  0  0  0
    2.8841  -28.4091  -13.0010 O   0  0  0  0  0  0  0  0  0  0  0  0
    1.2986  -28.0551  -14.8443 O   0  0  0  0  0  0  0  0  0  0  0  0
    1.3373  -26.3337  -12.9042 O   0  0  0  0  0  0  0  0  0  0  0  0
    1.0557  -25.6030  -13.5095 H   0  0  0  0  0  0  0  0  0  0  0  0
  1  2  1  0  0  0
  2  3  1  0  0  0
  2  7  1  0  0  0
  2 10  1  0  0  0
  3  4  1  0  0  0
  4  5  1  0  0  0
  5  6  1  0  0  0
  5 15  1  0  0  0
  6  7  1  0  0  0
  6 12  1  0  0  0
  7  8  1  0  0  0
  8  9  1  0  0  0
  9 10  1  0  0  0
 10 11  2  0  0  0
 12 13  1  0  0  0
 13 14  2  0  0  0
 14 15  1  0  0  0
 14 19  1  0  0  0
 15 16  1  0  0  0
 15 20  1  0  0  0
 16 17  1  0  0  0
 17 18  1  0  0  0
 18 19  1  0  0  0
 18 21  1  0  0  0
 21 22  1  0  0  0
 22 23  2  0  0  0
 22 24  2  0  0  0
 22 25  1  0  0  0
 25 26  1  0  0  0
M  END
> <COMPND>
../0-casp/nT856Q.pdb

> <AUTHOR>
GENERATED BY OPEN BABEL 3.1.0

> <MASTER>
        0    0    0    0    0    0    0    0   26    0   26    0

> <minimizedAffinity>
-8.13809

> <CNNscore>
0.6538885236

> <CNNaffinity>
5.6483836174

> <CNN_VS>
3.6934132576

> <CNNaffinity_variance>
0.2003965825

$$$$



 26 29  0  0  0  0  0  0  0  0999 V2000
    4.6812  -25.4198  -16.6155 C   0  0  0  0  0  0  0  0  0  0  0  0
    5.8229  -24.5258  -16.0550 C   0  0  0  0  0  0  0  0  0  0  0  0
    6.6660  -23.9178  -17.1926 C   0  0  0  0  0  0  0  0  0  0  0  0
    7.4534  -25.0269  -17.9364 C   0  0  0  0  0  0  0  0  0  0  0  0
    8.2641  -25.9820  -16.9909 C   0  0  0  0  0  0  0  0  0  0  0  0
    7.4492  -26.4629  -15.7462 C   0  0  0  0  0  0  0  0  0  0  0  0
    6.7883  -25.2332  -15.0985 C   0  0  0  0  0  0  0  0  0  0  0  0
    6.0236  -25.3697  -13.7802 C   0  0  0  0  0  0  0  0  0  0  0  0
    5.2424  -24.0465  -13.6896 C   0  0  0  0  0  0  0  0  0  0  0  0
    5.1959  -23.5595  -15.1064 C   0  0  0  0  0  0  0  0  0  0  0  0
    4.6537  -22.5191  -15.4460 O   0  0  0  0  0  0  0  0  0  0  0  0
    8.3873  -27.1629  -14.7499 C   0  0  0  0  0  0  0  0  0  0  0  0
    9.3446  -28.1206  -15.4027 C   0  0  0  0  0  0  0  0  0  0  0  0
    9.6663  -28.0980  -16.7162 C   0  0  0  0  0  0  0  0  0  0  0  0
    8.9426  -27.1976  -17.7314 C   0  0  0  0  0  0  0  0  0  0  0  0
    9.9901  -26.6452  -18.7481 C   0  0  0  0  0  0  0  0  0  0  0  0
   10.9379  -27.7166  -19.3066 C   0  0  0  0  0  0  0  0  0  0  0  0
   11.6834  -28.4351  -18.1760 C   0  0  0  0  0  0  0  0  0  0  0  0
   10.6837  -29.1028  -17.2286 C   0  0  0  0  0  0  0  0  0  0  0  0
    7.8986  -28.0641  -18.4889 C   0  0  0  0  0  0  0  0  0  0  0  0
   12.5124  -29.4396  -18.7295 O   0  0  0  0  0  0  0  0  0  0  0  0
   13.8879  -29.6670  -17.7581 S   0  0  0  0  0  0  0  0  0  0  0  0
   15.0638  -30.0273  -18.6199 O   0  0  0  0  0  0  0  0  0  0  0  0
   13.6494  -30.7537  -16.7467 O   0  0  0  0  0  0  0  0  0  0  0  0
   14.2255  -28.2328  -16.9507 O   0  0  0  0  0  0  0  0  0  0  0  0
   13.3710  -27.9742  -16.5235 H   0  0  0  0  0  0  0  0  0  0  0  0
  1  2  1  0  0  0
  2  3  1  0  0  0
  2  7  1  0  0  0
  2 10  1  0  0  0
  3  4  1  0  0  0
  4  5  1  0  0  0
  5  6  1  0  0  0
  5 15  1  0  0  0
  6  7  1  0  0  0
  6 12  1  0  0  0
  7  8  1  0  0  0
  8  9  1  0  0  0
  9 10  1  0  0  0
 10 11  2  0  0  0
 12 13  1  0  0  0
 13 14  2  0  0  0
 14 15  1  0  0  0
 14 19  1  0  0  0
 15 16  1  0  0  0
 15 20  1  0  0  0
 16 17  1  0  0  0
 17 18  1  0  0  0
 18 19  1  0  0  0
 18 21  1  0  0  0
 21 22  1  0  0  0
 22 23  2  0  0  0
 22 24  2  0  0  0
 22 25  1  0  0  0
 25 26  1  0  0  0
M  END
> <COMPND>
../0-casp/nT856Q.pdb

> <AUTHOR>
GENERATED BY OPEN BABEL 3.1.0

> <MASTER>
        0    0    0    0    0    0    0    0   26    0   26    0

> <minimizedAffinity>
-7.43476

> <CNNscore>
0.6379493475

> <CNNaffinity>
5.1843442917

> <CNN_VS>
3.3073489666

> <CNNaffinity_variance>
0.1585447490

$$$$
